Version 4
SHEET 1 900 680
WIRE 240 16 208 16
WIRE 128 32 -64 32
WIRE 240 48 208 48
WIRE 128 64 112 64
WIRE 240 80 208 80
WIRE 336 80 240 80
WIRE 432 80 416 80
WIRE -240 112 -240 80
WIRE -64 144 -64 32
WIRE -240 208 -240 192
WIRE -240 208 -304 208
WIRE -304 224 -304 208
WIRE -240 240 -240 208
WIRE -64 240 -64 224
WIRE -240 336 -240 320
FLAG -304 224 0
FLAG -240 80 v+
FLAG -240 336 v-
FLAG 240 48 0
FLAG 240 16 v+
FLAG -64 240 0
FLAG 496 144 0
FLAG 112 64 vout
FLAG 240 80 vout
FLAG 432 144 0
SYMBOL voltage -240 96 R0
WINDOW 123 0 0 Left 2
WINDOW 39 0 0 Left 2
SYMATTR InstName V1
SYMATTR Value 5
SYMBOL voltage -240 224 R0
WINDOW 123 0 0 Left 2
WINDOW 39 0 0 Left 2
SYMATTR InstName V2
SYMATTR Value 5
SYMBOL voltage -64 128 R0
WINDOW 123 0 0 Left 2
WINDOW 39 0 0 Left 2
SYMATTR InstName V3
SYMATTR Value PWL(0 0.9 0.9m 0.9 1.1m 1.8 10m 1.8)
SYMBOL AutoGenerated\\OP282 160 48 R0
SYMATTR InstName U1
SYMBOL res 480 48 R0
SYMATTR InstName R1
SYMATTR Value 1k
SYMBOL cap 416 80 R0
SYMATTR InstName C1
SYMATTR Value 0.1µ
SYMBOL res 432 64 R90
WINDOW 0 0 56 VBottom 2
WINDOW 3 32 56 VTop 2
SYMATTR InstName R3
SYMATTR Value 1k
TEXT -28 336 Left 2 !.tran 0 10m 0 1u
