Version 4
SHEET 1 880 680
WIRE -304 48 -304 16
WIRE -64 80 -64 32
WIRE -128 128 -304 128
WIRE -304 144 -304 128
WIRE -64 208 -64 176
WIRE -304 272 -304 208
WIRE -64 320 -64 288
WIRE -304 384 -304 352
FLAG -64 320 0
FLAG -304 384 0
FLAG -608 288 0
FLAG -608 208 Vdd
FLAG -64 32 Vdd
FLAG -304 16 Vdd
SYMBOL npn -128 80 R0
SYMATTR InstName q1
SYMATTR Value 2N2222
SYMBOL res -80 192 R0
SYMATTR InstName R1
SYMATTR Value 1k
SYMBOL voltage -304 256 R0
WINDOW 123 0 0 Left 2
WINDOW 39 0 0 Left 2
SYMATTR InstName V1
SYMATTR Value SINE(0 1 1k)
SYMBOL voltage -608 192 R0
WINDOW 123 0 0 Left 2
WINDOW 39 0 0 Left 2
SYMATTR InstName V2
SYMATTR Value 12
SYMBOL diode -320 144 R0
SYMATTR InstName 1N4148
SYMBOL res -320 32 R0
SYMATTR InstName R2
SYMATTR Value 1meg
TEXT -568 -80 Left 2 !.include 2N2222.sp
TEXT -568 -48 Left 2 !.tran 10m
TEXT -568 -112 Left 2 !.include 1N4148.sp
