Version 4
SHEET 1 964 680
WIRE -448 -48 -480 -48
WIRE -320 -48 -368 -48
WIRE -480 48 -480 -48
WIRE -448 48 -480 48
WIRE -320 48 -320 -48
WIRE -320 48 -384 48
WIRE -672 192 -784 192
WIRE -480 192 -480 48
WIRE -480 192 -608 192
WIRE -448 192 -480 192
WIRE -320 208 -320 48
WIRE -320 208 -384 208
WIRE -448 224 -480 224
WIRE -784 240 -784 192
WIRE -784 352 -784 320
FLAG -784 352 0
FLAG -976 304 0
FLAG -976 224 vdd
FLAG -1104 304 0
FLAG -1104 224 vbias
FLAG -480 224 vbias
SYMBOL cap -384 32 R90
WINDOW 0 0 32 VBottom 2
WINDOW 3 32 32 VTop 2
SYMATTR InstName C2
SYMATTR Value 45p
SYMBOL cap -608 176 R90
WINDOW 0 0 32 VBottom 2
WINDOW 3 32 32 VTop 2
SYMATTR InstName C3
SYMATTR Value 28p
SYMBOL voltage -784 224 R0
WINDOW 123 0 0 Left 2
WINDOW 39 0 0 Left 2
WINDOW 3 32 131 Left 2
SYMATTR Value PWL(0 1.8 19.9n 1.8 20n 0 79.9n 0 80n 0)
SYMATTR InstName V2
SYMBOL voltage -976 208 R0
WINDOW 123 0 0 Left 2
WINDOW 39 0 0 Left 2
SYMATTR InstName V3
SYMATTR Value 5
SYMBOL res -352 -64 R90
WINDOW 0 0 56 VBottom 2
WINDOW 3 32 56 VTop 2
SYMATTR InstName R2
SYMATTR Value 10g
SYMBOL voltage -1104 208 R0
WINDOW 123 0 0 Left 2
WINDOW 39 0 0 Left 2
SYMATTR InstName V4
SYMATTR Value 0.5
SYMBOL Opamps\\opamp -416 144 R0
SYMATTR InstName U2
TEXT -1096 8 Left 2 !.tran 0 300n 0 0.01n
TEXT -1080 56 Left 2 !.lib opamp.sub
