Version 4
SHEET 1 880 680
WIRE -400 -272 -432 -272
WIRE -272 -272 -320 -272
WIRE -432 -176 -432 -272
WIRE -400 -176 -432 -176
WIRE -272 -176 -272 -272
WIRE -272 -176 -336 -176
WIRE -816 -32 -816 -112
WIRE -816 -32 -880 -32
WIRE -768 -32 -816 -32
WIRE -672 -32 -672 -112
WIRE -672 -32 -704 -32
WIRE -608 -32 -672 -32
WIRE -496 -32 -544 -32
WIRE -432 -32 -432 -176
WIRE -432 -32 -496 -32
WIRE -384 -32 -432 -32
WIRE -272 -16 -272 -176
WIRE -272 -16 -320 -16
WIRE -384 0 -432 0
WIRE -880 16 -880 -32
WIRE -608 80 -656 80
WIRE -880 160 -880 96
WIRE -656 192 -656 80
WIRE -592 192 -656 192
WIRE -496 192 -496 -32
WIRE -496 192 -528 192
WIRE -656 272 -656 192
FLAG -880 160 0
FLAG -992 416 0
FLAG -992 336 vdd
FLAG -1120 416 0
FLAG -1120 336 vbias
FLAG -432 0 vbias
FLAG -656 352 0
SYMBOL cap -336 -192 R90
WINDOW 0 0 32 VBottom 2
WINDOW 3 32 32 VTop 2
SYMATTR InstName C2
SYMATTR Value 0.45p
SYMBOL cap -544 -48 R90
WINDOW 0 0 32 VBottom 2
WINDOW 3 32 32 VTop 2
SYMATTR InstName C3
SYMATTR Value 28p
SYMBOL voltage -880 0 R0
WINDOW 123 0 0 Left 2
WINDOW 39 0 0 Left 2
WINDOW 3 -360 123 Left 2
SYMATTR Value PWL(0 1.3 9.9n 1.3 10n 0 19.9n 0 30n 0)
SYMATTR InstName V2
SYMBOL voltage -992 320 R0
WINDOW 123 0 0 Left 2
WINDOW 39 0 0 Left 2
SYMATTR InstName V3
SYMATTR Value 1.8
SYMBOL res -304 -288 R90
WINDOW 0 0 56 VBottom 2
WINDOW 3 32 56 VTop 2
SYMATTR InstName R2
SYMATTR Value 1T
SYMBOL voltage -1120 320 R0
WINDOW 123 0 0 Left 2
WINDOW 39 0 0 Left 2
SYMATTR InstName V4
SYMATTR Value 0.5
SYMBOL voltage -656 256 R0
WINDOW 123 0 0 Left 2
WINDOW 39 0 0 Left 2
SYMATTR InstName V5
SYMATTR Value PWL(0 0 19.9n 0 20n 0.3 30n 0.3 39.9n 0.3)
SYMBOL cap -528 176 R90
WINDOW 0 0 32 VBottom 2
WINDOW 3 32 32 VTop 2
SYMATTR InstName C4
SYMATTR Value 0.5p
SYMBOL Opamps\\opamp -352 -80 R0
SYMATTR InstName U2
SYMBOL cap -704 -48 R90
WINDOW 0 0 32 VBottom 2
WINDOW 3 32 32 VTop 2
SYMATTR InstName C1
SYMATTR Value 0.5p
SYMBOL cap -544 64 R90
WINDOW 0 0 32 VBottom 2
WINDOW 3 32 32 VTop 2
SYMATTR InstName C5
SYMATTR Value 25p
TEXT -1024 -224 Left 2 !.tran 0 300n 0 0.01n
TEXT -1024 -184 Left 2 !.lib opamp.sub
